Circuit: * C:\users\eg\Desktop\hdd\Documents\UTN\2023\Dispositivos\TPS\3\Simulaciones\CircuitoSegundaParte.asc

Warning: Multiple definitions of model "2scr375p" Type: BJT
Warning: Multiple definitions of model "bc857b" Type: BJT
Warning: Multiple definitions of model "bc847c" Type: BJT
Warning: Multiple definitions of model "bc847b" Type: BJT
Direct Newton iteration for .op point succeeded.
.step vce=10
.step vce=15

Date: Tue Jul 25 12:41:13 2023
Total elapsed time: 0.330 seconds.

tnom = 27
temp = 27
method = modified trap
totiter = 20095
traniter = 20090
tranpoints = 10046
accept = 10045
rejected = 1
matrix size = 7
fillins = 0
solver = Normal
Avg thread counts: 1.0/1.1/1.1/1.0
Matrix Compiler1:      18 opcodes  0.4/[0.4]/0.4
Matrix Compiler2: 515 bytes object code size  0.4/0.5/[0.3]

