Circuit: * C:\users\eg\Desktop\hdd\Documents\UTN\2023\Dispositivos\TPS\3\Simulaciones\Draft3.asc

Warning: Multiple definitions of model "2scr375p" Type: BJT
Warning: Multiple definitions of model "bc857b" Type: BJT
Warning: Multiple definitions of model "bc847c" Type: BJT
Warning: Multiple definitions of model "bc847b" Type: BJT
Direct Newton iteration for .op point succeeded.

Date: Fri Aug 18 00:15:58 2023
Total elapsed time: 0.417 seconds.

tnom = 27
temp = 27
method = modified trap
totiter = 60047
traniter = 60041
tranpoints = 30021
accept = 30021
rejected = 0
matrix size = 10
fillins = 0
solver = Normal
Avg thread counts: 1.0/1.0/1.0/1.0
Matrix Compiler1:      24 opcodes  0.8/[0.6]/0.7
Matrix Compiler2: 680 bytes object code size  0.8/0.7/[0.6]

