Circuit: * C:\users\eg\Desktop\hdd\Documents\UTN\2023\Dispositivos\TPS\3\CircuitoCuartaParte.asc

Warning: Multiple definitions of model "2scr375p" Type: BJT
Warning: Multiple definitions of model "bc857b" Type: BJT
Warning: Multiple definitions of model "bc847c" Type: BJT
Warning: Multiple definitions of model "bc847b" Type: BJT
Direct Newton iteration for .op point succeeded.
.step vce=1
.step vce=2
.step vce=5
.step vce=8

Date: Fri Jul 14 23:24:05 2023
Total elapsed time: 0.702 seconds.

tnom = 27
temp = 27
method = modified trap
totiter = 22071
traniter = 22050
tranpoints = 11021
accept = 11021
rejected = 0
matrix size = 6
fillins = 0
solver = Normal
Avg thread counts: 1.0/1.1/1.1/1.0
Matrix Compiler1:      20 opcodes  0.3/0.3/[0.3]
Matrix Compiler2: 462 bytes object code size  0.3/0.3/[0.2]

