Circuit: * C:\users\eg\Desktop\hdd\Documents\UTN\2023\Dispositivos\TPS\3\Circuito2.asc

Warning: Multiple definitions of model "2scr375p" Type: BJT
Warning: Multiple definitions of model "bc857b" Type: BJT
Warning: Multiple definitions of model "bc847c" Type: BJT
Warning: Multiple definitions of model "bc847b" Type: BJT
WARNING: Less than two connections to node p1.  This node is used by v3.
Direct Newton iteration for .op point succeeded.
.step vce=1
.step vce=2
.step vce=5
.step vce=8

Date: Fri Jul 14 23:10:40 2023
Total elapsed time: 0.685 seconds.

tnom = 27
temp = 27
method = modified trap
totiter = 22071
traniter = 22050
tranpoints = 11021
accept = 11021
rejected = 0
matrix size = 8
fillins = 0
solver = Normal
Avg thread counts: 1.0/1.1/1.1/1.0
Matrix Compiler1:      23 opcodes  0.3/[0.2]/0.3
Matrix Compiler2:      45 opcodes  0.3/[0.2]/0.3

