Circuit: * C:\users\eg\Desktop\hdd\Documents\UTN\2023\Dispositivos\TPS\3\CircuitoSegundaParte.asc

Warning: Multiple definitions of model "2scr375p" Type: BJT
Warning: Multiple definitions of model "bc857b" Type: BJT
Warning: Multiple definitions of model "bc847c" Type: BJT
Warning: Multiple definitions of model "bc847b" Type: BJT
WARNING: Less than two connections to node p1.  This node is used by v3.
Direct Newton iteration for .op point succeeded.
.step vce=10
.step vce=15

Date: Tue Jul 25 14:45:20 2023
Total elapsed time: 0.455 seconds.

tnom = 27
temp = 27
method = modified trap
totiter = 20095
traniter = 20090
tranpoints = 10046
accept = 10045
rejected = 1
matrix size = 10
fillins = 0
solver = Normal
Avg thread counts: 1.0/1.1/1.1/1.0
Matrix Compiler1:      23 opcodes  0.7/[0.7]/0.8
Matrix Compiler2: 666 bytes object code size  0.7/0.9/[0.6]

