Questionable use of curly braces in "r1 n002 a {1x1}"
    Error: garbage at end of expression in: "1x[1]"
Questionable use of curly braces in "r2 a 0 {1x2}"
    Error: garbage at end of expression in: "1x[2]"
Circuit: * C:\users\eg\Desktop\hdd\Documents\UTN\2023\Dispositivos\TPS\3\Draft2.asc

Direct Newton iteration for .op point succeeded.
.step valp2=1
.step valp2=11
.step valp2=21
.step valp2=31
.step valp2=41
.step valp2=51
.step valp2=61
.step valp2=71
.step valp2=81
.step valp2=91
.step valp2=100

Date: Wed Jun  7 09:42:19 2023
Total elapsed time: 0.566 seconds.

tnom = 27
temp = 27
method = modified trap
totiter = 2043
traniter = 2040
tranpoints = 1021
accept = 1021
rejected = 0
matrix size = 4
fillins = 0
solver = Normal
Avg thread counts: 1.3/1.6/1.6/1.3
Matrix Compiler1: off  [0.3]/0.4/0.4
Matrix Compiler2: off  [0.3]/0.4/0.3

