Circuit: * C:\users\eg\Desktop\hdd\Documents\UTN\2023\Dispositivos\TPS\4\Simulaciones\CircuitoCuartaParte.asc

Direct Newton iteration for .op point succeeded.
.step vgs=-2 rd=1500
.step vgs=-1 rd=1500
.step vgs=0 rd=1500
.step vgs=-2 rd=3300
.step vgs=-1 rd=3300
.step vgs=0 rd=3300
.step vgs=-2 rd=10000
.step vgs=-1 rd=10000
.step vgs=0 rd=10000

Date: Wed Jul 19 11:58:33 2023
Total elapsed time: 11.023 seconds.

tnom = 27
temp = 27
method = modified trap
totiter = 40040
traniter = 40040
tranpoints = 20021
accept = 20021
rejected = 0
matrix size = 7
fillins = 0
solver = Normal
Avg thread counts: 1.0/1.0/1.0/1.0
Matrix Compiler1: 232 bytes object code size  2.1/2.3/[2.2]
Matrix Compiler2: 487 bytes object code size  2.0/2.3/[2.1]

