Circuit: * C:\users\eg\Desktop\hdd\Documents\UTN\2023\Dispositivos\TPS\4\Simulaciones\CircuitoSegundaParte.asc

Direct Newton iteration for .op point succeeded.

Date: Sat Sep 16 01:46:37 2023
Total elapsed time: 4.188 seconds.

tnom = 27
temp = 27
method = modified trap
totiter = 200039
traniter = 200034
tranpoints = 100018
accept = 100018
rejected = 0
matrix size = 4
fillins = 0
solver = Normal
Avg thread counts: 1.0/1.0/1.0/1.0
Matrix Compiler1:       7 opcodes  2.1/[1.9]/2.1
Matrix Compiler2:      20 opcodes  1.9/[1.7]/2.2

