Circuit: * C:\users\eg\Desktop\hdd\Documents\UTN\2023\Dispositivos\TPS\4\Simulaciones\CircuitoTerceraParte.asc

Direct Newton iteration for .op point succeeded.
.step vgs=-5
.step vgs=-4
.step vgs=-3
.step vgs=-2
.step vgs=-1
.step vgs=0

Date: Sat Sep 16 01:50:43 2023
Total elapsed time: 34.874 seconds.

tnom = 27
temp = 27
method = modified trap
totiter = 200034
traniter = 200034
tranpoints = 100018
accept = 100018
rejected = 0
matrix size = 6
fillins = 0
solver = Normal
Avg thread counts: 1.0/1.0/1.0/1.0
Matrix Compiler1: off  [2.8]/3.4/3.6
Matrix Compiler2: off  [3.1]/4.1/3.6

