Circuit: * C:\users\eg\Desktop\hdd\Documents\UTN\2023\Dispositivos\TPS\4\Simulaciones\CircuitoSegundaParte.asc

Direct Newton iteration for .op point succeeded.
.step vgs=-4
.step vgs=-3
.step vgs=-2
.step vgs=-1
.step vgs=0

Date: Wed Jul 19 11:50:52 2023
Total elapsed time: 3.226 seconds.

tnom = 27
temp = 27
method = modified trap
totiter = 20034
traniter = 20034
tranpoints = 10018
accept = 10018
rejected = 0
matrix size = 6
fillins = 0
solver = Normal
Avg thread counts: 1.0/1.1/1.1/1.0
Matrix Compiler1:      12 opcodes  2.1/[2.2]/2.4
Matrix Compiler2: off  [2.2]/2.4/2.5

