Circuit: * C:\users\eg\Desktop\hdd\Documents\UTN\2023\Dispositivos\TPS\4\Simulaciones\CircuitoPrimieraParte.asc

Direct Newton iteration for .op point succeeded.

Date: Wed Jul 19 11:33:40 2023
Total elapsed time: 5.475 seconds.

tnom = 27
temp = 27
method = modified trap
totiter = 200039
traniter = 200034
tranpoints = 100018
accept = 100018
rejected = 0
matrix size = 4
fillins = 0
solver = Normal
Avg thread counts: 1.0/1.0/1.0/1.0
Matrix Compiler1: 136 bytes object code size  2.0/2.0/[2.0]
Matrix Compiler2: 242 bytes object code size  2.0/2.1/[2.1]

