Circuit: * C:\users\eg\Desktop\hdd\Documents\UTN\2023\Dispositivos\TPS\4\Simulaciones\Draft2.asc

Direct Newton iteration for .op point succeeded.

Date: Wed Jul 19 11:44:21 2023
Total elapsed time: 5.756 seconds.

tnom = 27
temp = 27
method = modified trap
totiter = 200039
traniter = 200034
tranpoints = 100018
accept = 100018
rejected = 0
matrix size = 6
fillins = 0
solver = Normal
Avg thread counts: 1.0/1.0/1.0/1.0
Matrix Compiler1: 200 bytes object code size  2.2/2.2/[2.2]
Matrix Compiler2: 408 bytes object code size  2.2/2.3/[2.2]

