Circuit: * C:\users\eg\Desktop\hdd\Documents\UTN\2023\Dispositivos\TPS\4\Simulaciones\Draft1.asc

Direct Newton iteration for .op point succeeded.
Semiconductor Device Operating Points:
                        --- Diodes ---
Name:      d1          d2
Model:   1n4148      1n4148
Id:     -2.52e-09   -2.52e-09
Vd:     -3.50e-01   -3.50e-01
Req:     3.91e+10    3.91e+10
CAP:     3.55e-12    3.55e-12



Date: Sat Jul 22 02:48:19 2023
Total elapsed time: 0.069 seconds.

tnom = 27
temp = 27
method = trap
totiter = 7
traniter = 0
tranpoints = 0
accept = 0
rejected = 0
matrix size = 6
fillins = 0
solver = Normal
Avg thread counts: 8.0/0.0/8.0/8.0
Matrix Compiler1: 218 bytes object code size
Matrix Compiler2: 394 bytes object code size
