Circuit: * C:\users\eg\Desktop\hdd\Documents\UTN\2023\Dispositivos\TPS\4\Simulaciones\Draft3.asc

Direct Newton iteration for .op point succeeded.

Date: Wed Jul 26 18:16:56 2023
Total elapsed time: 0.206 seconds.

tnom = 27
temp = 27
method = modified trap
totiter = 20038
traniter = 20034
tranpoints = 10018
accept = 10018
rejected = 0
matrix size = 5
fillins = 0
solver = Normal
Avg thread counts: 1.0/1.1/1.1/1.0
Matrix Compiler1: off  [0.3]/0.4/0.8
Matrix Compiler2: off  [0.3]/0.6/0.7

